  43
31.75000 0.00000 0.00000 0.00000 12.00000 0.00000 0.00000 0.00000 31.75000 
C   0.00000  5.00000  15.24000
C   1.27000  5.00000  15.24000
C   2.54000  5.00000  15.24000
C   3.81000  5.00000  15.24000
C   5.08000  5.00000  15.24000
C   6.35000  5.00000  15.24000
C   7.62000  5.00000  15.24000
C   8.89000  5.00000  15.24000
C   10.16000  5.00000  15.24000
C   11.43000  5.00000  15.24000
C   12.70000  5.00000  15.24000
C   13.97000  5.00000  15.24000
C   15.24000  5.00000  0.00000
C   15.24000  5.00000  1.27000
C   15.24000  5.00000  2.54000
C   15.24000  5.00000  3.81000
C   15.24000  5.00000  5.08000
C   15.24000  5.00000  6.35000
C   15.24000  5.00000  7.62000
C   15.24000  5.00000  8.89000
C   15.24000  5.00000  10.16000
C   15.24000  5.00000  11.43000
C   15.24000  5.00000  12.70000
C   15.24000  5.00000  13.97000
C   15.24000  5.00000  16.51000
C   15.24000  5.00000  17.78000
C   15.24000  5.00000  19.05000
C   15.24000  5.00000  20.32000
C   15.24000  5.00000  21.59000
C   15.24000  5.00000  22.86000
C   15.24000  5.00000  24.13000
C   15.24000  5.00000  25.40000
C   15.24000  5.00000  26.67000
C   15.24000  5.00000  27.94000
C   15.24000  5.00000  29.21000
C   15.24000  5.00000  30.48000
C   16.51000  5.00000  15.24000
C   17.78000  5.00000  15.24000
C   19.05000  5.00000  15.24000
C   20.32000  5.00000  15.24000
C   21.59000  5.00000  15.24000
C   22.86000  5.00000  15.24000
C   24.13000  5.00000  15.24000

